<?xml version="1.0" encoding="UTF-8"?>

<!-- generated on 2023-04-13 18:06:29 by Eclipse SUMO netedit Version 1.16.0
<configuration xmlns:xsi="http://www.w3.org/2001/XMLSchema-instance" xsi:noNamespaceSchemaLocation="http://sumo.dlr.de/xsd/netconvertConfiguration.xsd">

    <input>
        <sumo-net-file value="scenarios/sumo/platoon/straight_sumo_via_t_agents_1/map.net.xml"/>
    </input>

    <output>
        <output-file value="scenarios/sumo/platoon/straight_sumo_via_t_agents_1/map.net.xml"/>
    </output>

    <processing>
        <geometry.min-radius.fix.railways value="false"/>
        <geometry.max-grade.fix value="false"/>
        <offset.disable-normalization value="true"/>
        <lefthand value="0"/>
    </processing>

    <junctions>
        <no-turnarounds value="true"/>
        <junctions.corner-detail value="5"/>
        <junctions.limit-turn-speed value="5.50"/>
        <rectangular-lane-cut value="0"/>
    </junctions>

    <pedestrian>
        <walkingareas value="0"/>
    </pedestrian>

</configuration>
-->

<net version="1.16" junctionCornerDetail="5" limitTurnSpeed="5.50" xmlns:xsi="http://www.w3.org/2001/XMLSchema-instance" xsi:noNamespaceSchemaLocation="http://sumo.dlr.de/xsd/net_file.xsd">

    <location netOffset="0.00,0.00" convBoundary="0.00,0.00,300.00,0.00" origBoundary="-10000000000.00,-10000000000.00,10000000000.00,10000000000.00" projParameter="!"/>

    <edge id=":J2_0" function="internal">
        <lane id=":J2_0_0" index="0" speed="13.89" length="0.10" shape="24.76,-4.80 24.76,-4.80"/>
        <lane id=":J2_0_1" index="1" speed="13.89" length="0.10" shape="24.76,-1.60 24.76,-1.60"/>
    </edge>
    <edge id=":J3_0" function="internal">
        <lane id=":J3_0_0" index="0" speed="13.89" length="0.10" shape="100.46,-4.80 100.46,-4.80"/>
        <lane id=":J3_0_1" index="1" disallow="truck" speed="13.89" length="0.10" shape="100.46,-1.60 100.46,-1.60"/>
    </edge>
    <edge id=":J4_0" function="internal">
        <lane id=":J4_0_0" index="0" disallow="truck" speed="13.89" length="0.10" shape="227.60,-4.80 227.60,-4.80"/>
        <lane id=":J4_0_1" index="1" speed="13.89" length="0.10" shape="227.60,-1.60 227.60,-1.60"/>
    </edge>
    <edge id=":J5_0" function="internal">
        <lane id=":J5_0_0" index="0" speed="13.89" length="0.10" shape="113.85,-4.80 113.85,-4.80"/>
        <lane id=":J5_0_1" index="1" disallow="truck" speed="13.89" length="0.10" shape="113.85,-1.60 113.85,-1.60"/>
    </edge>
    <edge id=":J6_0" function="internal">
        <lane id=":J6_0_0" index="0" disallow="truck" speed="13.89" length="0.10" shape="214.19,-4.80 214.19,-4.80"/>
        <lane id=":J6_0_1" index="1" speed="13.89" length="0.10" shape="214.19,-1.60 214.19,-1.60"/>
    </edge>

    <edge id="E0" from="J0" to="J2" priority="-1">
        <lane id="E0_0" index="0" speed="13.89" length="24.76" shape="0.00,-4.80 24.76,-4.80" changeLeft="tram rail_urban rail rail_electric rail_fast"/>
        <lane id="E0_1" index="1" speed="13.89" length="24.76" shape="0.00,-1.60 24.76,-1.60" changeLeft="tram rail_urban rail rail_electric rail_fast"/>
    </edge>
    <edge id="E1" from="J2" to="J3" priority="-1">
        <lane id="E1_0" index="0" speed="13.89" length="75.70" shape="24.76,-4.80 100.46,-4.80"/>
        <lane id="E1_1" index="1" speed="13.89" length="75.70" shape="24.76,-1.60 100.46,-1.60"/>
    </edge>
    <edge id="E1.188" from="J6" to="J4" priority="-1">
        <lane id="E1.188_0" index="0" disallow="truck" speed="13.89" length="13.41" shape="214.19,-4.80 227.60,-4.80"/>
        <lane id="E1.188_1" index="1" speed="13.89" length="13.41" shape="214.19,-1.60 227.60,-1.60"/>
    </edge>
    <edge id="E1.75" from="J3" to="J5" priority="-1">
        <lane id="E1.75_0" index="0" speed="13.89" length="13.39" shape="100.46,-4.80 113.85,-4.80"/>
        <lane id="E1.75_1" index="1" disallow="truck" speed="13.89" length="13.39" shape="100.46,-1.60 113.85,-1.60"/>
    </edge>
    <edge id="E1.88" from="J5" to="J6" priority="-1">
        <lane id="E1.88_0" index="0" speed="13.89" length="100.34" shape="113.85,-4.80 214.19,-4.80"/>
        <lane id="E1.88_1" index="1" speed="13.89" length="100.34" shape="113.85,-1.60 214.19,-1.60"/>
    </edge>
    <edge id="E_end" from="J4" to="J1" priority="-1">
        <lane id="E_end_0" index="0" speed="13.89" length="72.40" shape="227.60,-4.80 300.00,-4.80"/>
        <lane id="E_end_1" index="1" speed="13.89" length="72.40" shape="227.60,-1.60 300.00,-1.60"/>
    </edge>

    <junction id="J0" type="dead_end" x="0.00" y="0.00" incLanes="" intLanes="" shape="0.00,0.00 0.00,-6.40"/>
    <junction id="J1" type="dead_end" x="300.00" y="0.00" incLanes="E_end_0 E_end_1" intLanes="" shape="300.00,-6.40 300.00,0.00"/>
    <junction id="J2" type="priority" x="24.76" y="0.00" incLanes="E0_0 E0_1" intLanes=":J2_0_0 :J2_0_1" shape="24.76,0.00 24.76,-6.40 24.76,0.00">
        <request index="0" response="00" foes="00" cont="0"/>
        <request index="1" response="00" foes="00" cont="0"/>
    </junction>
    <junction id="J3" type="priority" x="100.46" y="0.00" incLanes="E1_0 E1_1" intLanes=":J3_0_0 :J3_0_1" shape="100.46,0.00 100.46,-6.40 100.46,0.00">
        <request index="0" response="00" foes="00" cont="0"/>
        <request index="1" response="00" foes="00" cont="0"/>
    </junction>
    <junction id="J4" type="priority" x="227.60" y="0.00" incLanes="E1.188_0 E1.188_1" intLanes=":J4_0_0 :J4_0_1" shape="227.60,0.00 227.60,-6.40 227.60,0.00">
        <request index="0" response="00" foes="00" cont="0"/>
        <request index="1" response="00" foes="00" cont="0"/>
    </junction>
    <junction id="J5" type="priority" x="113.85" y="0.00" incLanes="E1.75_0 E1.75_1" intLanes=":J5_0_0 :J5_0_1" shape="113.85,0.00 113.85,-6.40 113.85,0.00">
        <request index="0" response="00" foes="00" cont="0"/>
        <request index="1" response="00" foes="00" cont="0"/>
    </junction>
    <junction id="J6" type="priority" x="214.19" y="0.00" incLanes="E1.88_0 E1.88_1" intLanes=":J6_0_0 :J6_0_1" shape="214.19,0.00 214.19,-6.40 214.19,0.00">
        <request index="0" response="00" foes="00" cont="0"/>
        <request index="1" response="00" foes="00" cont="0"/>
    </junction>

    <connection from="E0" to="E1" fromLane="0" toLane="0" via=":J2_0_0" dir="s" state="M"/>
    <connection from="E0" to="E1" fromLane="1" toLane="1" via=":J2_0_1" dir="s" state="M"/>
    <connection from="E1" to="E1.75" fromLane="0" toLane="0" via=":J3_0_0" dir="s" state="M"/>
    <connection from="E1" to="E1.75" fromLane="1" toLane="1" via=":J3_0_1" dir="s" state="M"/>
    <connection from="E1.188" to="E_end" fromLane="0" toLane="0" via=":J4_0_0" dir="s" state="M"/>
    <connection from="E1.188" to="E_end" fromLane="1" toLane="1" via=":J4_0_1" dir="s" state="M"/>
    <connection from="E1.75" to="E1.88" fromLane="0" toLane="0" via=":J5_0_0" dir="s" state="M"/>
    <connection from="E1.75" to="E1.88" fromLane="1" toLane="1" via=":J5_0_1" dir="s" state="M"/>
    <connection from="E1.88" to="E1.188" fromLane="0" toLane="0" via=":J6_0_0" dir="s" state="M"/>
    <connection from="E1.88" to="E1.188" fromLane="1" toLane="1" via=":J6_0_1" dir="s" state="M"/>

    <connection from=":J2_0" to="E1" fromLane="0" toLane="0" dir="s" state="M"/>
    <connection from=":J2_0" to="E1" fromLane="1" toLane="1" dir="s" state="M"/>
    <connection from=":J3_0" to="E1.75" fromLane="0" toLane="0" dir="s" state="M"/>
    <connection from=":J3_0" to="E1.75" fromLane="1" toLane="1" dir="s" state="M"/>
    <connection from=":J4_0" to="E_end" fromLane="0" toLane="0" dir="s" state="M"/>
    <connection from=":J4_0" to="E_end" fromLane="1" toLane="1" dir="s" state="M"/>
    <connection from=":J5_0" to="E1.88" fromLane="0" toLane="0" dir="s" state="M"/>
    <connection from=":J5_0" to="E1.88" fromLane="1" toLane="1" dir="s" state="M"/>
    <connection from=":J6_0" to="E1.188" fromLane="0" toLane="0" dir="s" state="M"/>
    <connection from=":J6_0" to="E1.188" fromLane="1" toLane="1" dir="s" state="M"/>

</net>
